578

C         11.85903       14.05352       13.73637
C         12.45653       12.89078       13.01802
C         11.70458       12.17124       12.07700
C         12.28100       11.10905       11.38471
C         13.62186       10.73988       11.61187
C         14.35538       11.44418       12.58453
C         13.78245       12.50917       13.27598
C         14.26126        9.64910       10.83852
C         14.25627        9.65688        9.41683
C         13.74301       10.75898        8.66296
C         49.12716       21.23308       13.87447
C         48.55049       22.40128       13.14753
C         49.30036       23.06822       12.16618
C         48.73348       24.10744       11.43302
C         47.40315       24.50953       11.66207
C         46.67246       23.86115       12.67609
C         47.23485       22.81617       13.40538
C         46.77276       25.58713       10.86479
C         46.76137       25.55731        9.44304
C         47.26134       24.44224        8.69952
C         14.86010        8.57049        8.70356
C         14.89228        8.59732       11.51518
C         49.11342       21.20338        2.15041
C         48.52806       22.36489        2.87757
C         49.26711       23.02511        3.87092
C         48.69086       24.05971        4.60243
C         47.36068       24.45701        4.36379
C         46.64054       23.81271        3.33967
C         47.21403       22.77680        2.60784
C         46.72214       25.53190        5.15485
C         46.73355       25.52809        6.57656
C         47.24900       24.42890        7.33297
C         40.63229       17.13946        7.32886
C         40.66000       17.18001        4.52004
C         11.88329       14.08658        2.29077
C         12.47271       12.91110        2.99517
C         11.71497       12.17730        3.92064
C         12.28166       11.09486        4.58896
C         13.62077       10.72179        4.35770
C         14.35907       11.43811        3.39773
C         13.79356       12.51927        2.72509
C         14.25426        9.62490        5.12801
C         14.25251        9.64461        6.54984
C         13.74255       10.75351        7.29692
C         22.51263        3.24650       13.74630
C         23.22601        4.35213       13.04508
C         24.22057        4.07292       12.09571
C         24.84665        5.11255       11.41246
C         24.49476        6.45520       11.65687
C         23.52842        6.72572       12.64329
C         22.89776        5.68800       13.32529
C         25.09984        7.56228       10.87976
C         25.07326        7.55472        9.45772
C         24.37429        6.55357        8.71121
C         38.30362       31.93156       13.84555
C         37.57504       30.84123       13.13726
C         36.61305       31.14357       12.16190
C         35.99825       30.12170       11.44433
C         36.33218       28.77424       11.68168
C         37.26437       28.47907       12.69372
C         37.88292       29.49969       13.41018
C         35.73240       27.68221       10.88489
C         35.75964       27.70081        9.46389
C         36.46420       28.70427        8.72671
C         25.69462        8.62562        8.73707
C         25.69673        8.63841       11.54913
C         38.32896       31.96379        2.16128
C         37.60448       30.89342        2.90514
C         36.67913       31.20864        3.91180
C         36.06435       30.19467        4.64359
C         36.36049       28.84057        4.39082
C         37.26393       28.53518        3.35460
C         37.88146       29.54589        2.62469
C         35.74718       27.74507        5.17581
C         35.76706       27.73327        6.59763
C         36.46844       28.71939        7.36017
C         46.13539       26.62065        7.28672
C         46.08841       26.58042        4.47882
C         22.46251        3.25628        2.26206
C         23.15962        4.36426        2.98192
C         24.16382        4.07761        3.92048
C         24.79482        5.10747        4.61399
C         24.44187        6.45369        4.39199
C         23.46106        6.73348        3.42158
C         22.82548        5.70401        2.72826
C         25.07308        7.55190        5.16573
C         25.06067        7.54835        6.58841
C         24.36635        6.55178        7.34445
C         26.62297       17.86160       13.78254
C         25.31519       17.90182       13.05773
C         25.06419       18.88283       12.08540
C         23.85146       18.90019       11.39875
C         22.85327       17.93938       11.66093
C         23.10169       16.98084       12.66163
C         24.31607       16.95815       13.34645
C         21.57993       17.92145       10.89641
C         21.57904       17.88965        9.47379
C         22.78320       17.75216        8.71366
C         34.42043       17.22371       13.90750
C         35.71026       17.16029       13.15747
C         35.91268       16.18752       12.16544
C         37.09481       16.16818       11.42883
C         38.10810       17.11777       11.66786
C         37.90755       18.06959       12.68532
C         36.72275       18.09573       13.41703
C         39.36664       17.12101       10.88773
C         39.36741       17.14425        9.46663
C         38.16353       17.27312        8.70465
C         20.33239       17.91071        8.76510
C         20.35461       17.93173       11.57820
C         34.47818       17.24867        2.18284
C         35.78380       17.17813        2.90339
C         36.00083       16.19214        3.87724
C         37.18637       16.17615        4.60627
C         38.18248       17.14580        4.38089
C         37.97241       18.10667        3.37461
C         36.78448       18.12741        2.64822
C         39.42693       17.16502        5.17999
C         39.39837       17.16853        6.60074
C         38.17776       17.28261        7.33823
C         35.13739       26.65371        7.30170
C         35.14364       26.68207        4.49298
C         26.58556       17.79176        2.36591
C         25.26884       17.84401        3.06294
C         25.01002       18.83810        4.01826
C         23.78595       18.86888        4.67977
C         22.79462       17.90334        4.41352
C         23.04854       16.93518        3.42495
C         24.27143       16.90436        2.75834
C         21.52970       17.88384        5.18376
C         21.55336       17.86761        6.60553
C         22.77081       17.74039        7.34741
C         14.04765       17.82831        2.29471
C         15.35156       17.88327        3.02030
C         15.60866       18.88258        3.97212
C         16.81754       18.90013        4.66540
C         17.80433       17.92126        4.42968
C         17.55206       16.94678        3.44534
C         16.34273       16.92442        2.75366
C         19.07335       17.89971        5.19901
C         19.07201       17.89377        6.62165
C         17.86498       17.79804        7.38321
C         46.80792       17.22111        2.16548
C         45.52116       17.16674        2.91681
C         45.31514       16.19279        3.90570
C         44.13608       16.18235        4.64601
C         43.13478       17.14609        4.41786
C         43.33884       18.10099        3.40379
C         44.51851       18.11529        2.66483
C         41.88100       17.16088        5.20394
C         41.88172       17.15491        6.62553
C         43.08789       17.24471        7.38917
C         20.31881       17.89899        7.33018
C         20.29769       17.87930        4.51685
C         46.78346       17.22987       13.88605
C         45.47631       17.12036       13.17558
C         45.25655       16.12281       12.21369
C         44.06651       16.09496       11.49023
C         43.06610       17.06118       11.71223
C         43.27510       18.02671       12.71460
C         44.46665       18.06130       13.43246
C         41.82111       17.08761       10.91210
C         41.85123       17.11533        9.49122
C         43.07348       17.22366        8.75547
C         46.15320       26.63711        8.72128
C         46.16297       26.65637       11.53090
C         14.04653       17.83197       13.70367
C         15.36774       17.90606       13.01463
C         15.64134       18.91819       12.08234
C         16.87080       18.95381       11.42828
C         17.85483       17.97648       11.68028
C         17.58835       16.99424       12.65155
C         16.36098       16.95789       13.30908
C         19.12198       17.94748       10.91124
C         19.09734       17.91736        9.48983
C         17.87739       17.80858        8.74925
C         28.80887       14.08405        2.36411
C         28.20305       12.91177        3.05764
C         28.91754       12.19786        4.03051
C         28.32073       11.12489        4.68772
C         26.99462       10.74363        4.39849
C         26.30214       11.44009        3.39154
C         26.89675       12.51246        2.73209
C         26.32406        9.66618        5.16209
C         26.30215        9.69728        6.58320
C         26.79485       10.81566        7.32738
C         32.15488       21.26687        2.15398
C         32.73868       22.43627        2.87706
C         31.99225       23.10384        3.86061
C         32.56352       24.14305        4.59018
C         33.89433       24.54084        4.35480
C         34.62055       23.89206        3.33903
C         34.05268       22.84831        2.61227
C         34.52937       25.61258        5.15336
C         34.53587       25.57576        6.57404
C         34.03305       24.45732        7.31110
C         25.69306        8.61883        7.30236
C         25.69167        8.61193        4.48947
C         32.10710       21.23339       13.88523
C         32.70329       22.38087       13.13827
C         31.96808       23.04601       12.14494
C         32.55088       24.07288       11.40621
C         33.88246       24.46557       11.64452
C         34.60115       23.81388       12.66481
C         34.02306       22.78048       13.39776
C         34.52155       25.54751       10.86153
C         34.53071       25.54297        9.44004
C         34.02966       24.44156        8.67734
C         40.61662       17.12281        8.76291
C         40.58745       17.10846       11.57247
C         28.72286       14.09969       13.77564
C         28.11994       12.94963       13.04181
C         28.84687       12.26812       12.05355
C         28.26905       11.20345       11.36651
C         26.94772       10.79535       11.63942
C         26.23855       11.46559       12.65426
C         26.81501       12.52882       13.34532
C         26.30621        9.70240       10.87067
C         26.29420        9.71621        9.44855
C         26.78838       10.82571        8.69295
C         18.13552        3.18130        2.32230
C         17.40641        4.27848        3.02094
C         16.39016        4.00023        3.94793
C         15.74253        5.04027        4.61138
C         16.09507        6.38393        4.37223
C         17.08512        6.65338        3.40914
C         17.73413        5.61597        2.74410
C         15.47064        7.49159        5.13526
C         15.48548        7.49061        6.55698
C         16.18698        6.49694        7.31013
C         42.94603       31.85975        2.07802
C         43.64650       30.77201        2.82202
C         44.59160       31.09339        3.80846
C         45.19736       30.08786        4.55615
C         44.87144       28.73475        4.34089
C         43.94619       28.42037        3.32716
C         43.33732       29.42549        2.57913
C         45.48891       27.65539        5.14409
C         45.49274       27.68081        6.56579
C         44.80553       28.68877        7.31242
C         14.85646        8.56305        7.26935
C         14.87568        8.56353        4.45668
C         42.94652       31.96191       13.80392
C         43.69193       30.88568       13.09049
C         44.65607       31.19159       12.11778
C         45.27764       30.17201       11.40005
C         44.95441       28.82166       11.63815
C         44.02156       28.52400       12.64953
C         43.39328       29.54076       13.36171
C         45.56332       27.72419       10.85288
C         45.53322       27.71726        9.43158
C         44.82679       28.70741        8.67861
C         35.13434       26.63673        8.73597
C         35.13264       26.60465       11.54566
C         18.14869        3.24726       13.70142
C         17.43027        4.34401       12.99211
C         16.41460        4.05279       12.06900
C         15.76634        5.08345       11.39365
C         16.12150        6.42864       11.61596
C         17.11348        6.71198       12.57260
C         17.76113        5.68304       13.25234
C         15.49085        7.52427       10.84356
C         15.49645        7.50747        9.42243
C         16.19315        6.50572        8.67574
H         10.67225       12.46490       11.90044
H         11.69463       10.55009       10.65861
H         15.39275       11.17036       12.76554
H         14.35233       13.07305       14.01059
H         13.37620       11.63118        9.19629
H         50.32293       22.74789       11.98115
H         49.31993       24.62245       10.67524
H         45.64324       24.16253       12.85979
H         46.66414       22.29134       14.16798
H         47.63020       23.57601        9.24122
H         14.87312        8.58885       12.60350
H         50.28700       22.70191        4.06609
H         49.26924       24.57484        5.36616
H         45.61145       24.11067        3.15005
H         46.65354       22.25520        1.83566
H         47.60808       23.55189        6.80208
H         40.67023       17.15059        3.43220
H         48.68734       14.09517       15.79498
H         10.68128       12.46585        4.09756
H         11.68980       10.52393        5.30117
H         15.39485       11.16103        3.21251
H         14.36629       13.08931        1.99740
H         13.37597       11.62223        6.75830
H         47.93038       14.21869        1.71610
H         47.78024       14.37484       14.49052
H         49.08581       18.55324        2.87298
H         10.41681       14.13429        0.00390
H         24.48126        3.03452       11.90343
H         25.61793        4.89421       10.67700
H         23.24829        7.75858       12.83975
H         22.12995        5.88956       14.06829
H         23.81302        5.79645        9.25098
H         36.37273       32.18633       11.96852
H         35.25148       30.35760       10.68939
H         37.52854       27.44063       12.88252
H         38.62896       29.28230       14.17080
H         37.03279       29.45136        9.27282
H         25.73373        8.62137       12.63692
H         36.46285       32.25445        4.11790
H         35.34147       30.44439        5.41710
H         37.50422       27.49324        3.15372
H         38.60175       29.31580        1.84336
H         37.04149       29.47748        6.83406
H         46.11031       26.58811        3.39079
H         44.66845       35.11642       15.80889
H         24.44051        3.03918        4.08802
H         25.57672        4.87830        5.33489
H         23.17725        7.76831        3.24108
H         22.05247        5.91765        1.99369
H         23.79841        5.79375        6.81290
H         44.95423       34.39069        1.70047
H         44.90197       34.20695       14.48560
H         40.66671       33.21011        2.85865
H         23.15033        1.95896        0.00961
H         25.83373       19.62409       11.88176
H         23.66296       19.66706       10.65041
H         22.34380       16.22935       12.87357
H         24.51741       16.20396       14.10369
H         23.72317       17.62547        9.24286
H         35.13194       15.44993       11.99086
H         37.25332       15.40478       10.67004
H         38.68198       18.81019       12.87437
H         36.55208       18.84411       14.18757
H         37.22348       17.39590        9.23455
H         20.36140       17.97916       12.66578
H         35.21991       15.45717        4.05827
H         37.35541       15.40862        5.35842
H         38.73630       18.86070        3.19625
H         36.59880       18.88629        1.89173
H         37.24876       17.40962        6.78982
H         35.10693       26.71342        3.40571
H         28.50912       21.08235       15.98468
H         25.78002       19.57674        4.22864
H         23.58476       19.64358        5.41640
H         22.29165       16.18258        3.21380
H         24.48400       16.14493        2.00975
H         23.70155       17.60413        6.80469
H         28.96398       21.72273        1.79642
H         29.15587       21.74863       14.62589
H         32.10904       18.52673        2.99902
H         27.39267       19.06627        0.09675
H         14.85077       19.64145        4.15340
H         17.01272       19.68145        5.39681
H         18.30320       16.18326        3.25351
H         16.13730       16.15825        2.00987
H         16.92202       17.68411        6.85638
H         46.09571       15.45752        4.08653
H         43.97512       15.41882        5.40387
H         42.57332       18.85319        3.22505
H         44.69397       18.86600        1.89789
H         44.03140       17.36192        6.86367
H         20.29209       17.91419        3.42885
H         46.03470       15.38466       12.03304
H         43.90043       15.32196       10.74301
H         42.50793       18.77725       12.89327
H         44.64974       18.82699       14.18234
H         44.00590       17.32340        9.30352
H         46.20035       26.68322       12.61832
H         52.74162       21.06284        0.19987
H         14.88063       19.67074       11.88678
H         17.08178       19.74146       10.70815
H         18.33954       16.23369       12.85450
H         16.14040       16.18606       14.04241
H         16.94370       17.70260        9.29336
H         52.32372       21.67370       14.28867
H         52.01413       21.70274        1.50085
H         49.06827       18.60764       13.19858
H         13.24833       19.01556       15.97260
H         29.93491       12.50367        4.26337
H         28.87651       10.57187        5.44171
H         25.27694       11.15759        3.16130
H         26.35816       13.07213        1.97140
H         27.15343       11.68762        6.78839
H         30.96655       22.78896        4.04265
H         31.98049       24.66382        5.34687
H         35.64993       24.19146        3.15268
H         34.61748       22.32038        1.84736
H         33.67316       23.59273        6.76117
H         25.72667        8.58910        3.40168
H         30.94031       22.74250       11.95975
H         31.97325       24.59097       10.64369
H         35.63178       24.10708       12.85400
H         34.58183       22.25480       14.16863
H         33.66638       23.56496        9.20600
H         40.57627       17.06324       12.65985
H         32.51431       14.14929        0.26485
H         29.86581       12.58192       11.83855
H         28.84159       10.67289       10.60899
H         25.21551       11.16513       12.87109
H         26.26378       13.06141       14.11666
H         27.14161       11.70576        9.22210
H         33.28967       14.19135       14.42310
H         33.41089       14.41992        1.60267
H         32.14103       18.58848       13.20843
H         30.22400       14.19370        0.06655
H         16.11763        2.96378        4.13393
H         14.95269        4.82105        5.32666
H         17.36831        7.68617        3.21665
H         18.51679        5.81865        2.01693
H         16.75374        5.73975        6.77663
H         44.82753       32.14052        3.98291
H         45.93695       30.34173        5.31233
H         43.68412       27.37822        3.15656
H         42.60120       29.19019        1.81397
H         44.23035       29.43665        6.77409
H         14.85249        8.54713        3.36844
H         44.89924       32.23431       11.92599
H         46.02424       30.41333       10.64653
H         43.76530       27.48421       12.84169
H         42.64738       29.31804       14.12077
H         44.26843       29.47040        9.21319
H         35.09353       26.61532       12.63324
H         36.60528       35.13440        0.18561
H         16.14315        3.01326       11.89962
H         14.97369        4.85674       10.68390
H         17.39762        7.74737       12.74893
H         18.54460        5.89353       13.97646
H         16.76477        5.75561        9.21416
H         36.27874       34.48294       14.26779
H         36.38133       34.20918        1.50436
H         40.58141       33.20388       13.14806
H         17.47099        1.94834       15.96904
H         18.85411        0.86928        4.34042
H         40.52800       35.22896       11.94672
H         42.32603       34.42090       11.58425
H         22.08755        0.69227        4.35690
H         11.59686       18.71276        4.38776
H         52.26533       18.43145       11.67220
H         49.25491       16.47689       11.57928
H         10.15047       15.79832        4.29772
H         50.85064       17.69269       11.94893
H         10.04642       17.39469        4.05693
H         20.21550        0.00244        4.04697
H         39.18396       36.12461       11.68128
O         10.65001       14.36518       13.48080
O         12.61317       14.65752       14.57882
O         49.14793       16.84576       15.98447
O         50.35035       20.93563       13.64277
O         48.34861       20.59330       14.66073
O         11.05200       17.05368       14.49574
O         50.32099       20.88161        2.41203
O         48.34674       20.58674        1.33220
O         49.54401       18.24840        2.07319
O         12.35937       18.62475        0.00480
O         48.69323       14.14864       14.74619
O          8.20995       14.21044        1.32760
O         10.73539       14.50680        2.66941
O         12.57182       14.58279        1.33361
O         22.84514        2.04455       13.48178
O         21.60618        3.59291       14.58390
O         42.05865       34.13794       15.97383
O         37.98188       33.13892       13.56770
O         39.21883       31.57690       14.66242
O         20.30874        1.04021       14.49714
O         38.02505       33.18709        2.41999
O         39.21892       31.58377        1.33213
O         40.65242       33.76968        2.06529
O         18.25541        1.37681        0.00185
O         44.62221       35.10061       14.75369
O         24.20549       -0.00001        1.32582
O         22.75310        2.05770        2.58878
O         21.62464        3.59604        1.34791
O         27.49553       18.75166       13.49695
O         26.76766       16.93037       14.65257
O         30.66454       19.40877        0.08439
O         33.54385       16.33089       13.64355
O         34.27654       18.18020       14.73738
O         29.57345       17.07167       14.57216
O         33.62420       16.33109        2.41404
O         34.30319       18.25333        1.41127
O         31.65361       18.31560        2.16771
O         30.32401       15.15978        0.07811
O         28.55357       21.03543       14.90480
O         28.51091       20.95132        1.41690
O         27.49485       18.60800        2.74051
O         26.69406       16.93088        1.42006
O         13.14928       18.69271        2.59261
O         13.91935       16.91623        1.41010
O         50.59672       19.35024        0.02543
O         47.68354       16.32700        2.42250
O         46.95231       18.17613        1.32914
O         11.07018       17.01539        1.49461
O         47.67445       16.33574       13.64769
O         46.92584       18.23603       14.65897
O         49.56891       18.31769       13.97712
O         10.31882       15.10008        0.00216
O         52.67083       21.02786        1.24691
O         12.14685       20.89123       14.66822
O         13.10831       18.61355       13.32056
O         13.95705       16.98712       14.66042
O         29.99888       14.43253        2.66753
O         28.07734       14.65902        1.48660
O         32.13765       16.86005        0.08069
O         30.95262       20.95065        2.42919
O         32.91957       20.65494        1.33296
O         29.56900       17.07595        1.58060
O         30.87711       20.95824       13.66635
O         32.88208       20.58382       14.66252
O         31.67876       18.25834       13.99426
O         28.28206       18.67613        0.09653
O         32.49637       14.21283        1.33396
O         32.39946       14.22000       14.81062
O         29.87836       14.51241       13.40586
O         28.04443       14.58558       14.74318
O         17.88923        1.96672        2.66790
O         18.95629        3.52720        1.41308
O         39.16865       34.13905        0.00234
O         43.28027       33.05902        2.33688
O         42.03460       31.50645        1.24681
O         20.31805        1.03724        1.48480
O         43.27611       33.18268       13.56976
O         42.00531       31.58413       14.57789
O         40.57914       33.77539       13.93099
O         22.36767        1.38503        0.00293
O         36.67275       35.09997        1.23828
O         16.44569        0.06453       14.66321
O         17.93653        2.04346       13.32127
O         18.91910        3.59320       14.66079
O         39.45684       35.24387       11.99682
O         19.14185        0.00477        3.99559
O         41.96964       35.17301       12.08206
O         21.69136       -0.06929        3.90121
O         51.36535       18.61433       12.00023
O         10.75111       18.74706        3.91004
O         50.07922       16.41270       12.08666
O          9.52446       16.48315        3.99630
Zr         9.29863       16.05272       14.17741
Zr        49.83812       16.00653        1.75126
Zr        22.07389        0.03174       14.18346
Zr        42.46145       35.15497        1.80639
Zr        29.59308       19.10950       14.31308
Zr        29.57459       19.16887        1.91727
Zr        11.03979       19.05161        1.83307
Zr        11.04568       19.15459       14.24546
Zr        31.34364       16.09485        1.88962
Zr        31.38996       16.03278       14.28103
Zr        18.60185        0.00046        1.76822
Zr        18.50716       -0.00601       14.20900
Zr        12.30439       16.32355       15.98529
Zr        48.61869       18.83338        0.01489
Zr        20.31643        2.47558       15.98523
Zr        40.64479       32.68895       15.97341
Zr        28.34148       16.34481        0.08944
Zr        32.61841       18.84622        0.07485
H         28.81654       18.88108        4.39771
H         29.73996       19.98981       11.71598
H         32.16783       16.32369       10.72823
H         31.35837       15.48621        4.49271
H         28.33855       17.35927        6.91615
H         31.95522       13.59161        8.10291
H         31.51493       20.18207        9.51546
H         33.45004       16.79446        9.85883
H         29.00092       16.72430        9.35026
H         32.35479       18.40309        6.78969
Ni        30.64705       18.03983       10.82571
Ni        31.19737       16.20906        8.07492
Ni        30.01346       18.93921        7.82831
Ni        30.27158       17.22787        5.41344
O         29.82161       19.12215       12.15139
O         29.74132       18.97937        4.08830
O         31.17769       16.34515       11.99547
O         31.35234       16.33232        3.99876
O         32.48533       16.69627        9.82445
O         29.83197       17.21313        9.23495
O         30.49466       15.60531        6.48941
O         31.50715       17.95221        6.92766
O         30.71239       19.63965        9.51519
O         28.80908       18.09909        6.49765
O         30.19852       20.50861        6.32942
H         31.05283       20.96484        6.26933
H         30.09013       20.02258        5.44577
O         31.08513       13.99107        8.26170
H         30.74131       14.29075        7.33723
H         30.50043       15.66386       11.81291
