   38
   
 Ni        31.0326354323       17.9564910017       10.9093522344
 Ni        31.1908107209       16.3597618170        8.3217296357
 Ni        30.0611603239       18.8577545354        7.9125762947
 Ni        30.2294786316       17.3955177990        5.2526011839
  O        29.8063687478       18.8403988071       12.0830775306
  O        29.7037113150       19.0435168406        4.0846878242
  O        31.1372361944       16.4079692630       12.0686474485
  O        31.3037392595       16.2667813330        4.0587705351
  O        32.2238770086       17.0156555189        9.7483907792
  O        30.3486995879       15.6214571936        6.8277073900
  O        31.4825406423       17.8777265807        6.9080957917
  O        31.0433610831       19.3482075074        9.6508328354
  O        28.8063993163       18.0887254734        6.4839742156
  O        28.2143169436       19.5656873156        8.6647271707
  O        30.2898052676       20.5171250612        6.4940070275
  H        28.7663489256       18.9983833173        4.3663870906
  H        28.9210623757       18.6191010724       11.7330510671
  H        31.7831947772       15.8857779936       11.5530685639
  H        31.0029916937       15.3940497893        4.3845502949
  H        28.4873567971       17.2578075255        6.8806962043
  H        29.6644716848       14.9742000251        7.0618639815
  H        30.5574786277       20.0730780538       10.0854978325
  H        32.7624191484       17.7394943668        9.3738118096
  H        32.3265398322       18.3420141356        6.7771433715
  H        29.5076464932       15.7665836738       11.4039383553
  H        28.3135456417       14.7573687591       11.3566364961
  H        32.9391869219       15.6871100014        5.0457819757
  H        27.7915675624       19.3289664482        7.8115448803
  H        27.8468554996       18.8651529807        9.2916130975
  H        30.1316666493       20.1092792328        5.5959110434
  H        29.6016053800       21.1948228411        6.5928326573
  H        30.6848560616       15.3410629878        9.1990743651
  O        27.1646395067       17.5854634475       10.0802703153
  O        28.6780389844       15.5382191723       10.9086992238
  O        33.4171713548       15.0965340886        5.6655537809
  H        26.4801684001       17.7449656139       10.7539838497
  H        32.7484912821       14.9528011923        6.3598364359
  H        27.7062826322       16.8042955460       10.4073666718
