   30
   
 Ni        30.9399524147       17.7729264943       10.9084210258
 Ni        31.3266834991       16.4236744298        8.1597079230
 Ni        29.9665344443       18.8197021161        8.1597278076
 Ni        30.2698980308       17.4724604855        5.3327200876
  O        29.8682979127       18.8988121477       12.1579939036
  O        29.7830339146       18.9056824614        4.0141074838
  O        31.3449722904       16.3349171418       12.1638482816
  O        31.3091631564       16.4044772179        4.0134627587
  O        32.3256624112       16.7080086003        9.7463751526
  O        29.7975368971       17.1514909984        9.3126883974
  O        30.5014260542       15.7523922420        6.5685429322
  O        31.4339090232       18.0994888596        6.9901172670
  O        30.8023805402       19.5009774414        9.7387574188
  O        28.9005335988       18.4046054993        6.5853550102
  H        29.0196699373       19.2679254106        4.5035037107
  H        29.8016546646       19.7062476848       11.6160635747
  H        32.0080217671       15.8578462306       11.6302406001
  H        31.2635235165       15.5658227724        4.5145358268
  H        28.0929312110       17.8959089544        6.7579528242
  H        29.7338160113       15.1931705105        6.7839326476
  H        31.6034215423       20.0357097550        9.6266374705
  H        33.2345290888       17.0033430171        9.5732685978
  H        29.0074022976       16.5811019790        9.3030818617
  H        32.2882772768       18.5616247809        6.9660087073
  O        28.6349606147       14.2899489633        8.4169633310
  H        28.9741821537       13.8456481634        9.2136188849
  H        27.7433891165       13.9213237759        8.3008569159
  H        34.3569746336       15.1024924109        7.9401709010
  H        34.5870586745       16.0870883841        6.7830999829
  O        34.3927218673       16.0505637500        7.7356072149
  